goiania_leste_dss/TR4/CTMT_5008498.dss
! ==============================================================================
! ALIMENTADOR CTMT_5008498 - GOIANIA LESTE-25
! Subestacao: Trafo TR4 (GOL-S-TRF-TR4) | Barra MT: 6440 -> PAC_INI: 95463865008498
! ==============================================================================

! 1. Disjuntor de Saida MT do Alimentador
new line.DJ_5008498 phases=3 bus1=6440 bus2=95463865008498 switch=y r1=1e-4 x1=1e-4 length=0.001 units=km

! 2. Linhas de Media Tensao (MT)
new line.52885752 phases=3 bus1=80480105008498.1.2.3 bus2=80480075008498.1.2.3 r1=0.236 x1=0.27 length=0.036019 units=km normamps=456.0
new line.52885753 phases=3 bus1=80480075008498.1.2.3 bus2=80480085008498.1.2.3 r1=0.236 x1=0.27 length=0.036951 units=km normamps=456.0
new line.52885754 phases=3 bus1=80480085008498.1.2.3 bus2=80480095008498.1.2.3 r1=0.236 x1=0.27 length=0.033944 units=km normamps=456.0
new line.52886066 phases=3 bus1=80480095008498.1.2.3 bus2=97204585008498.1.2.3 r1=0.236 x1=0.27 length=0.022741 units=km normamps=456.0
new line.52888639 phases=3 bus1=80543415008498.1.2.3 bus2=80543405008498.1.2.3 r1=0.975 x1=0.47 length=0.03639 units=km normamps=152.0
new line.52888640 phases=3 bus1=80543425008498.1.2.3 bus2=80543415008498.1.2.3 r1=0.975 x1=0.47 length=0.031765 units=km normamps=152.0
new line.52888641 phases=3 bus1=80543435008498B.1.2.3 bus2=80543425008498.1.2.3 r1=0.975 x1=0.47 length=0.015474 units=km normamps=152.0
new line.52888642 phases=3 bus1=80543445008498.1.2.3 bus2=80543435008498.1.2.3 r1=0.975 x1=0.47 length=0.032649 units=km normamps=152.0
new line.52888643 phases=3 bus1=80543485008498.1.2.3 bus2=80543475008498B.1.2.3 r1=0.975 x1=0.47 length=0.04071 units=km normamps=152.0
new line.52888644 phases=3 bus1=80543495008498.1.2.3 bus2=80543485008498.1.2.3 r1=0.975 x1=0.47 length=0.032011 units=km normamps=152.0
new line.52888645 phases=3 bus1=80543505008498.1.2.3 bus2=80543495008498.1.2.3 r1=0.975 x1=0.47 length=0.033433 units=km normamps=152.0
new line.52888646 phases=3 bus1=80543435008498.1.2.3 bus2=80543505008498.1.2.3 r1=0.975 x1=0.47 length=0.038415 units=km normamps=152.0
new line.52888647 phases=3 bus1=80543545008498.1.2.3 bus2=80543535008498.1.2.3 r1=1.551 x1=0.49 length=0.031242 units=km normamps=114.0
new line.52888648 phases=3 bus1=80543475008498.1.2.3 bus2=80543545008498.1.2.3 r1=0.975 x1=0.47 length=0.014631 units=km normamps=152.0
new line.52888649 phases=3 bus1=80543625008498.1.2.3 bus2=80543605008498.1.2.3 r1=0.195 x1=0.4 length=0.018206 units=km normamps=419.0
new line.52888650 phases=3 bus1=80543605008498.1.2.3 bus2=80543615008498.1.2.3 r1=0.195 x1=0.4 length=0.015966 units=km normamps=419.0
new line.52888651 phases=3 bus1=80543635008498.1.2.3 bus2=80543625008498.1.2.3 r1=0.195 x1=0.4 length=0.024626 units=km normamps=419.0
new line.52888652 phases=3 bus1=80543645008498.1.2.3 bus2=80543635008498.1.2.3 r1=0.195 x1=0.4 length=0.022696 units=km normamps=419.0
new line.52888653 phases=3 bus1=80543545008498.1.2.3 bus2=80543645008498.1.2.3 r1=0.195 x1=0.4 length=0.014533 units=km normamps=419.0
new line.52888654 phases=3 bus1=80543515008498.1.2.3 bus2=80543655008498.1.2.3 r1=0.195 x1=0.4 length=0.029208 units=km normamps=419.0
new line.52888655 phases=3 bus1=80543655008498.1.2.3 bus2=80543545008498.1.2.3 r1=0.195 x1=0.4 length=0.027628 units=km normamps=419.0
new line.52888656 phases=3 bus1=80543695008498.1.2.3 bus2=80543605008498.1.2.3 r1=0.195 x1=0.4 length=0.044815 units=km normamps=419.0
new line.52888657 phases=3 bus1=80543695008498.1.2.3 bus2=80543715008498.1.2.3 r1=0.195 x1=0.4 length=0.019021 units=km normamps=419.0
new line.52888658 phases=3 bus1=80544125008498.1.2.3 bus2=80544105008498.1.2.3 r1=0.195 x1=0.4 length=0.049549 units=km normamps=419.0
new line.52888659 phases=3 bus1=80544135008498.1.2.3 bus2=80544125008498.1.2.3 r1=0.195 x1=0.4 length=0.030281 units=km normamps=419.0
new line.52888660 phases=3 bus1=80543515008498.1.2.3 bus2=94665475008498.1.2.3 r1=0.195 x1=0.4 length=0.011209 units=km normamps=419.0
new line.52888684 phases=3 bus1=80543855008498.1.2.3 bus2=80542995008498.1.2.3 r1=0.975 x1=0.47 length=0.031843 units=km normamps=152.0
new line.52888685 phases=3 bus1=80543875008498.1.2.3 bus2=80543855008498.1.2.3 r1=0.975 x1=0.47 length=0.039254 units=km normamps=152.0
new line.52888686 phases=3 bus1=80543885008498.1.2.3 bus2=80543875008498.1.2.3 r1=0.975 x1=0.47 length=0.027628 units=km normamps=152.0
new line.52888687 phases=3 bus1=80543785008498.1.2.3 bus2=80543885008498.1.2.3 r1=1.551 x1=0.49 length=0.035994 units=km normamps=114.0
new line.52888688 phases=3 bus1=80543895008498.1.2.3 bus2=80543885008498.1.2.3 r1=0.975 x1=0.47 length=0.040594 units=km normamps=152.0
new line.52888689 phases=3 bus1=80543905008498.1.2.3 bus2=80543895008498.1.2.3 r1=0.975 x1=0.47 length=0.028282 units=km normamps=152.0
new line.52888690 phases=3 bus1=80543615008498B.1.2.3 bus2=80543905008498.1.2.3 r1=0.975 x1=0.47 length=0.030403 units=km normamps=152.0
new line.52888691 phases=3 bus1=80543605008498.1.2.3 bus2=80543595008498.1.2.3 r1=0.195 x1=0.4 length=0.006579 units=km normamps=419.0
new line.52888693 phases=3 bus1=80543915008498.1.2.3 bus2=80543645008498.1.2.3 r1=0.195 x1=0.4 length=0.007152 units=km normamps=419.0
new line.52888820 phases=3 bus1=80541235008498.1.2.3 bus2=80546535008498.1.2.3 r1=0.195 x1=0.4 length=0.021398 units=km normamps=419.0
new line.52888828 phases=3 bus1=80546635008498.1.2.3 bus2=80541205008498.1.2.3 r1=0.236 x1=0.27 length=0.031581 units=km normamps=456.0
new line.52888829 phases=3 bus1=80546645008498.1.2.3 bus2=80546635008498.1.2.3 r1=0.236 x1=0.27 length=0.033493 units=km normamps=456.0
new line.52888830 phases=3 bus1=80546655008498.1.2.3 bus2=80546645008498.1.2.3 r1=0.236 x1=0.27 length=0.04774 units=km normamps=456.0
new line.52888831 phases=3 bus1=80546685008498.1.2.3 bus2=80546655008498.1.2.3 r1=0.236 x1=0.27 length=0.009427 units=km normamps=456.0
new line.52888832 phases=3 bus1=80546675008498.1.2.3 bus2=80546685008498.1.2.3 r1=0.236 x1=0.27 length=0.010325 units=km normamps=456.0
new line.52888839 phases=3 bus1=80545235008498.1.2.3 bus2=99056675008498.1.2.3 r1=0.236 x1=0.27 length=0.027722 units=km normamps=456.0
new line.52888841 phases=3 bus1=80479835008498.1.2.3 bus2=80483045008498.1.2.3 r1=1.551 x1=0.49 length=0.016393 units=km normamps=114.0
new line.52888842 phases=3 bus1=80483045008498.1.2.3 bus2=80547775008498.1.2.3 r1=1.551 x1=0.49 length=0.013704 units=km normamps=114.0
new line.52888844 phases=3 bus1=80545285008498.1.2.3 bus2=80545235008498.1.2.3 r1=0.236 x1=0.27 length=0.033289 units=km normamps=456.0
new line.52888845 phases=3 bus1=80541895008498.1.2.3 bus2=80542145008498.1.2.3 r1=0.195 x1=0.4 length=0.026518 units=km normamps=419.0
new line.52888846 phases=3 bus1=80542125008498.1.2.3 bus2=80542175008498.1.2.3 r1=0.975 x1=0.47 length=0.026839 units=km normamps=152.0
new line.52888847 phases=3 bus1=80542175008498.1.2.3 bus2=80542165008498.1.2.3 r1=0.975 x1=0.47 length=0.014242 units=km normamps=152.0
new line.52888848 phases=3 bus1=80542185008498.1.2.3 bus2=80542175008498.1.2.3 r1=0.195 x1=0.4 length=0.014682 units=km normamps=419.0
new line.52888849 phases=3 bus1=80542175008498.1.2.3 bus2=80542145008498.1.2.3 r1=0.195 x1=0.4 length=0.032929 units=km normamps=419.0
new line.52888850 phases=3 bus1=80542165008498.1.2.3 bus2=80542225008498.1.2.3 r1=0.975 x1=0.47 length=0.029429 units=km normamps=152.0
new line.52888851 phases=3 bus1=80542475008498.1.2.3 bus2=80542465008498.1.2.3 r1=1.551 x1=0.49 length=0.027626 units=km normamps=114.0
new line.52888852 phases=3 bus1=80542495008498.1.2.3 bus2=80542475008498.1.2.3 r1=1.551 x1=0.49 length=0.031847 units=km normamps=114.0
new line.52888853 phases=3 bus1=80542505008498.1.2.3 bus2=80542495008498.1.2.3 r1=1.551 x1=0.49 length=0.042995 units=km normamps=114.0
new line.52888854 phases=3 bus1=80542515008498B.1.2.3 bus2=80542505008498.1.2.3 r1=1.551 x1=0.49 length=0.033749 units=km normamps=114.0
new line.52888855 phases=3 bus1=80542535008498.1.2.3 bus2=80542545008498.1.2.3 r1=0.195 x1=0.4 length=0.033749 units=km normamps=419.0
new line.52888856 phases=3 bus1=80542545008498.1.2.3 bus2=80542525008498.1.2.3 r1=0.195 x1=0.4 length=0.013293 units=km normamps=419.0
new line.52888857 phases=3 bus1=80542555008498.1.2.3 bus2=80542535008498B.1.2.3 r1=0.195 x1=0.4 length=0.027628 units=km normamps=419.0
new line.52888858 phases=3 bus1=80479835008498.1.2.3 bus2=80542545008498.1.2.3 r1=1.551 x1=0.49 length=0.031716 units=km normamps=114.0
new line.52888859 phases=3 bus1=80542545008498.1.2.3 bus2=80542515008498.1.2.3 r1=1.551 x1=0.49 length=0.006135 units=km normamps=114.0
new line.52888860 phases=3 bus1=80540865008498.1.2.3 bus2=80540875008498.1.2.3 r1=0.236 x1=0.27 length=0.027908 units=km normamps=456.0
new line.52888861 phases=3 bus1=80540875008498B.1.2.3 bus2=80540885008498.1.2.3 r1=0.236 x1=0.27 length=0.021054 units=km normamps=456.0
new line.52888862 phases=3 bus1=80540895008498.1.2.3 bus2=80540885008498.1.2.3 r1=0.195 x1=0.4 length=0.01479 units=km normamps=419.0
new line.52888863 phases=3 bus1=80540885008498.1.2.3 bus2=80540905008498.1.2.3 r1=0.236 x1=0.27 length=0.023338 units=km normamps=456.0
new line.52888864 phases=3 bus1=80540905008498.1.2.3 bus2=80540915008498.1.2.3 r1=0.236 x1=0.27 length=0.033383 units=km normamps=456.0
new line.52888866 phases=3 bus1=80540915008498.1.2.3 bus2=80540935008498.1.2.3 r1=0.236 x1=0.27 length=0.044393 units=km normamps=456.0
new line.52888867 phases=3 bus1=80540935008498.1.2.3 bus2=80540985008498.1.2.3 r1=0.195 x1=0.4 length=0.012354 units=km normamps=419.0
new line.52888868 phases=3 bus1=80540965008498.1.2.3 bus2=80540985008498.1.2.3 r1=1.551 x1=0.49 length=0.005175 units=km normamps=114.0
new line.52888871 phases=3 bus1=80541025008498.1.2.3 bus2=80541035008498.1.2.3 r1=0.195 x1=0.4 length=0.020577 units=km normamps=419.0
new line.52888872 phases=3 bus1=80540985008498.1.2.3 bus2=80541025008498.1.2.3 r1=0.195 x1=0.4 length=0.007373 units=km normamps=419.0
new line.52888873 phases=3 bus1=80541045008498.1.2.3 bus2=80541035008498.1.2.3 r1=0.195 x1=0.4 length=0.001505 units=km normamps=419.0
new line.52888874 phases=3 bus1=80541035008498.1.2.3 bus2=80541055008498.1.2.3 r1=0.195 x1=0.4 length=0.010528 units=km normamps=419.0
new line.52888875 phases=3 bus1=80541055008498.1.2.3 bus2=80541065008498.1.2.3 r1=0.195 x1=0.4 length=0.038055 units=km normamps=419.0
new line.52888876 phases=3 bus1=80541065008498.1.2.3 bus2=80541085008498.1.2.3 r1=0.195 x1=0.4 length=0.026125 units=km normamps=419.0
new line.52888878 phases=3 bus1=80541205008498.1.2.3 bus2=80541195008498B.1.2.3 r1=0.236 x1=0.27 length=0.031601 units=km normamps=456.0
new line.52888879 phases=3 bus1=80541215008498.1.2.3 bus2=80541205008498.1.2.3 r1=1.551 x1=0.49 length=0.006628 units=km normamps=114.0
new line.52888882 phases=3 bus1=80541235008498.1.2.3 bus2=80541245008498.1.2.3 r1=0.195 x1=0.4 length=0.014263 units=km normamps=419.0
new line.52888883 phases=3 bus1=80541255008498.1.2.3 bus2=80541245008498.1.2.3 r1=0.195 x1=0.4 length=0.019184 units=km normamps=419.0
new line.52888884 phases=3 bus1=80542555008498.1.2.3 bus2=80542815008498.1.2.3 r1=0.195 x1=0.4 length=0.024481 units=km normamps=419.0
new line.52888885 phases=3 bus1=80542835008498.1.2.3 bus2=80542185008498.1.2.3 r1=0.195 x1=0.4 length=0.028621 units=km normamps=419.0
new line.52888886 phases=3 bus1=80542825008498.1.2.3 bus2=80542835008498.1.2.3 r1=0.195 x1=0.4 length=0.030961 units=km normamps=419.0
new line.52888887 phases=3 bus1=80542815008498.1.2.3 bus2=80542845008498.1.2.3 r1=0.195 x1=0.4 length=0.034252 units=km normamps=419.0
new line.52888888 phases=3 bus1=80542845008498.1.2.3 bus2=80542825008498.1.2.3 r1=0.195 x1=0.4 length=0.01034 units=km normamps=419.0
new line.52888889 phases=3 bus1=80542845008498.1.2.3 bus2=80542855008498.1.2.3 r1=0.975 x1=0.47 length=0.025959 units=km normamps=152.0
new line.52888890 phases=3 bus1=80542865008498.1.2.3 bus2=80542845008498.1.2.3 r1=0.975 x1=0.47 length=0.012408 units=km normamps=152.0
new line.52888891 phases=3 bus1=80542885008498.1.2.3 bus2=80542865008498.1.2.3 r1=0.975 x1=0.47 length=0.027418 units=km normamps=152.0
new line.52888892 phases=3 bus1=80541265008498.1.2.3 bus2=80541255008498B.1.2.3 r1=0.195 x1=0.4 length=0.031834 units=km normamps=419.0
new line.52888893 phases=3 bus1=80541085008498.1.2.3 bus2=80541265008498.1.2.3 r1=0.195 x1=0.4 length=0.029285 units=km normamps=419.0
new line.52888925 phases=3 bus1=80541795008498.1.2.3 bus2=95462315008498.1.2.3 r1=0.195 x1=0.4 length=0.013198 units=km normamps=419.0
new line.52888926 phases=3 bus1=80543715008498.1.2.3 bus2=80543955008498.1.2.3 r1=0.195 x1=0.4 length=0.026841 units=km normamps=419.0
new line.52888927 phases=3 bus1=80543955008498.1.2.3 bus2=80543965008498.1.2.3 r1=0.195 x1=0.4 length=0.033868 units=km normamps=419.0
new line.52888928 phases=3 bus1=80543965008498.1.2.3 bus2=80543975008498.1.2.3 r1=0.195 x1=0.4 length=0.030642 units=km normamps=419.0
new line.52888929 phases=3 bus1=80543975008498.1.2.3 bus2=80543985008498.1.2.3 r1=0.195 x1=0.4 length=0.035906 units=km normamps=419.0
new line.52888930 phases=3 bus1=80543985008498.1.2.3 bus2=80544015008498.1.2.3 r1=0.195 x1=0.4 length=0.032015 units=km normamps=419.0
new line.52888931 phases=3 bus1=80544015008498.1.2.3 bus2=80544025008498.1.2.3 r1=0.195 x1=0.4 length=0.02607 units=km normamps=419.0
new line.52888932 phases=3 bus1=80544025008498.1.2.3 bus2=80544035008498.1.2.3 r1=0.195 x1=0.4 length=0.02186 units=km normamps=419.0
new line.52888933 phases=3 bus1=80544035008498.1.2.3 bus2=80542525008498.1.2.3 r1=0.195 x1=0.4 length=0.019536 units=km normamps=419.0
new line.52888951 phases=3 bus1=80543005008498.1.2.3 bus2=80542985008498.1.2.3 r1=0.975 x1=0.47 length=0.007158 units=km normamps=152.0
new line.52888979 phases=3 bus1=80541815008498B.1.2.3 bus2=80541795008498.1.2.3 r1=0.195 x1=0.4 length=0.036022 units=km normamps=419.0
new line.52888980 phases=3 bus1=80541935008498.1.2.3 bus2=80541815008498.1.2.3 r1=0.195 x1=0.4 length=0.027816 units=km normamps=419.0
new line.52888981 phases=3 bus1=80541865008498.1.2.3 bus2=80541935008498.1.2.3 r1=0.195 x1=0.4 length=0.004919 units=km normamps=419.0
new line.52888982 phases=3 bus1=80541935008498.1.2.3 bus2=80541885008498.1.2.3 r1=0.195 x1=0.4 length=0.033991 units=km normamps=419.0
new line.52888983 phases=3 bus1=80541885008498.1.2.3 bus2=80541895008498.1.2.3 r1=0.195 x1=0.4 length=0.02607 units=km normamps=419.0
new line.52888984 phases=3 bus1=80541875008498.1.2.3 bus2=80541935008498.1.2.3 r1=0.195 x1=0.4 length=0.009588 units=km normamps=419.0
new line.52888985 phases=3 bus1=80541965008498.1.2.3 bus2=80541875008498B.1.2.3 r1=1.551 x1=0.49 length=0.035832 units=km normamps=114.0
new line.52888986 phases=3 bus1=80542995008498.1.2.3 bus2=80542985008498.1.2.3 r1=0.975 x1=0.47 length=0.03771 units=km normamps=152.0
new line.52889201 phases=3 bus1=80479835008498.1.2.3 bus2=80550235008498.1.2.3 r1=0.975 x1=0.47 length=0.022426 units=km normamps=152.0
new line.52889202 phases=3 bus1=80550235008498.1.2.3 bus2=80542565008498.1.2.3 r1=0.975 x1=0.47 length=0.008902 units=km normamps=152.0
new line.54088411 phases=3 bus1=80543855008498.1.2.3 bus2=80543845008498.1.2.3 r1=0.975 x1=0.47 length=0.012632 units=km normamps=152.0
new line.54088413 phases=3 bus1=80543845008498.1.2.3 bus2=80543865008498.1.2.3 r1=0.975 x1=0.47 length=0.040247 units=km normamps=152.0
new line.54088415 phases=3 bus1=80543865008498.1.2.3 bus2=80442705008498.1.2.3 r1=0.975 x1=0.47 length=0.037058 units=km normamps=152.0
new line.54088418 phases=3 bus1=80442705008498.1.2.3 bus2=85969455008498.1.2.3 r1=0.975 x1=0.47 length=0.013749 units=km normamps=152.0
new line.54237740 phases=3 bus1=80541965008498.1.2.3 bus2=80541975008498.1.2.3 r1=0.975 x1=0.47 length=0.036051 units=km normamps=152.0
new line.54237741 phases=3 bus1=80541975008498.1.2.3 bus2=80542005008498.1.2.3 r1=0.975 x1=0.47 length=0.029006 units=km normamps=152.0
new line.54237742 phases=3 bus1=80542005008498.1.2.3 bus2=80472885008498.1.2.3 r1=0.975 x1=0.47 length=0.042254 units=km normamps=152.0
new line.54237743 phases=3 bus1=80472885008498.1.2.3 bus2=80472855008498.1.2.3 r1=0.975 x1=0.47 length=0.034264 units=km normamps=152.0
new line.54237744 phases=3 bus1=80472855008498.1.2.3 bus2=80472845008498.1.2.3 r1=0.975 x1=0.47 length=0.029544 units=km normamps=152.0
new line.54237745 phases=3 bus1=80472845008498.1.2.3 bus2=87144915008498.1.2.3 r1=0.975 x1=0.47 length=0.023799 units=km normamps=152.0
new line.54239706 phases=3 bus1=80472845008498.1.2.3 bus2=80472865008498.1.2.3 r1=0.975 x1=0.47 length=0.00858 units=km normamps=152.0
new line.54239707 phases=3 bus1=80472865008498.1.2.3 bus2=80472875008498.1.2.3 r1=0.975 x1=0.47 length=0.037678 units=km normamps=152.0
new line.54239708 phases=3 bus1=80472875008498.1.2.3 bus2=87158825008498.1.2.3 r1=0.732 x1=0.31 length=0.005214 units=km normamps=225.0
new line.55075906 phases=3 bus1=80542885008498.1.2.3 bus2=80542325008498.1.2.3 r1=0.732 x1=0.31 length=0.041864 units=km normamps=225.0
new line.55075907 phases=3 bus1=80542355008498.1.2.3 bus2=93594285008498.1.2.3 r1=0.732 x1=0.31 length=0.008365 units=km normamps=225.0
new line.55075908 phases=3 bus1=80542325008498.1.2.3 bus2=80542355008498.1.2.3 r1=0.732 x1=0.31 length=0.031049 units=km normamps=225.0
new line.55217032 phases=3 bus1=94665465008498.1.2.3 bus2=94665485008498.1.2.3 r1=0.195 x1=0.4 length=0.011046 units=km normamps=419.0
new line.55217036 phases=3 bus1=94665445008498.1.2.3 bus2=94665455008498.1.2.3 r1=0.195 x1=0.4 length=0.011323 units=km normamps=419.0
new line.55217037 phases=3 bus1=94665455008498B.1.2.3 bus2=94665285008498.1.2.3 r1=0.195 x1=0.4 length=0.009088 units=km normamps=419.0
new line.55217038 phases=3 bus1=94665285008498.1.2.3 bus2=94665485008498.1.2.3 r1=0.195 x1=0.4 length=0.009658 units=km normamps=419.0
new line.55217054 phases=3 bus1=94665475008498.1.2.3 bus2=94665465008498B.1.2.3 r1=0.195 x1=0.4 length=0.01072 units=km normamps=419.0
new line.55217056 phases=3 bus1=94665485008498.1.2.3 bus2=80544135008498.1.2.3 r1=0.195 x1=0.4 length=0.012424 units=km normamps=419.0
new line.55217058 phases=3 bus1=94665475008498.1.2.3 bus2=94665445008498.1.2.3 r1=0.195 x1=0.4 length=0.01044 units=km normamps=419.0
new line.55311059 phases=3 bus1=80444925008498.1.2.3 bus2=95463945008498.1.2.3 r1=0.236 x1=0.27 length=0.018342 units=km normamps=456.0
new line.55311067 phases=3 bus1=80444905008498.1.2.3 bus2=80444915008498.1.2.3 r1=0.236 x1=0.27 length=0.033526 units=km normamps=456.0
new line.55311069 phases=3 bus1=80444915008498.1.2.3 bus2=80444925008498.1.2.3 r1=0.236 x1=0.27 length=0.0299 units=km normamps=456.0
new line.55311077 phases=3 bus1=80444885008498.1.2.3 bus2=80444905008498.1.2.3 r1=0.236 x1=0.27 length=0.037052 units=km normamps=456.0
new line.55311080 phases=3 bus1=95463945008498.1.2.3 bus2=80445005008498.1.2.3 r1=0.236 x1=0.27 length=0.033706 units=km normamps=456.0
new line.55311091 phases=3 bus1=80445005008498.1.2.3 bus2=80547885008498.1.2.3 r1=0.236 x1=0.27 length=0.033248 units=km normamps=456.0
new line.55311092 phases=3 bus1=80547885008498.1.2.3 bus2=80547865008498.1.2.3 r1=0.236 x1=0.27 length=0.029625 units=km normamps=456.0
new line.55311093 phases=3 bus1=80547865008498.1.2.3 bus2=80541785008498.1.2.3 r1=0.236 x1=0.27 length=0.034091 units=km normamps=456.0
new line.55311094 phases=3 bus1=80541785008498.1.2.3 bus2=80541775008498.1.2.3 r1=0.236 x1=0.27 length=0.034787 units=km normamps=456.0
new line.55311095 phases=3 bus1=80541775008498.1.2.3 bus2=80541765008498.1.2.3 r1=0.236 x1=0.27 length=0.03461 units=km normamps=456.0
new line.55311116 phases=3 bus1=80444885008498.1.2.3 bus2=80444895008498.1.2.3 r1=0.236 x1=0.27 length=0.025282 units=km normamps=456.0
new line.55311117 phases=3 bus1=80444895008498.1.2.3 bus2=80445025008498.1.2.3 r1=0.236 x1=0.27 length=0.027814 units=km normamps=456.0
new line.55311118 phases=3 bus1=80445025008498.1.2.3 bus2=95436765008498.1.2.3 r1=0.236 x1=0.27 length=0.034616 units=km normamps=456.0
new line.55311120 phases=3 bus1=95436765008498.1.2.3 bus2=80445015008498.1.2.3 r1=0.236 x1=0.27 length=0.008389 units=km normamps=456.0
new line.55311126 phases=3 bus1=80444125008498.1.2.3 bus2=80444115008498.1.2.3 r1=0.236 x1=0.27 length=0.03657 units=km normamps=456.0
new line.55311127 phases=3 bus1=80444115008498.1.2.3 bus2=80444105008498.1.2.3 r1=0.236 x1=0.27 length=0.03277 units=km normamps=456.0
new line.55311128 phases=3 bus1=80444105008498.1.2.3 bus2=80445015008498.1.2.3 r1=0.236 x1=0.27 length=0.020779 units=km normamps=456.0
new line.55311129 phases=3 bus1=80541765008498.1.2.3 bus2=95462315008498.1.2.3 r1=0.236 x1=0.27 length=0.009349 units=km normamps=456.0
new line.55312820 phases=3 bus1=95463905008498B.1.2.3 bus2=80444125008498.1.2.3 r1=0.236 x1=0.27 length=0.020653 units=km normamps=456.0
new line.55312821 phases=3 bus1=95474765008498.1.2.3 bus2=95463905008498.1.2.3 r1=0.236 x1=0.27 length=0.033517 units=km normamps=456.0
new line.55312822 phases=3 bus1=95463865008498.1.2.3 bus2=95474765008498.1.2.3 r1=0.236 x1=0.27 length=0.002997 units=km normamps=456.0
new line.55462889 phases=3 bus1=80541255008498.1.2.3 bus2=80541195008498.1.2.3 r1=0.236 x1=0.27 length=0.021588 units=km normamps=456.0
new line.55539668 phases=3 bus1=97204585008498.1.2.3 bus2=80481045008498B.1.2.3 r1=0.236 x1=0.27 length=0.073798 units=km normamps=456.0
new line.55632179 phases=3 bus1=80540865008498.1.2.3 bus2=97585555008498.1.2.3 r1=0.236 x1=0.27 length=0.030571 units=km normamps=456.0
new line.55632622 phases=3 bus1=80544105008498.1.2.3 bus2=80544115008498.1.2.3 r1=0.236 x1=0.27 length=0.0328 units=km normamps=456.0
new line.55632623 phases=3 bus1=80544115008498B.1.2.3 bus2=97204585008498.1.2.3 r1=0.236 x1=0.27 length=0.064429 units=km normamps=456.0
new line.55632670 phases=3 bus1=80480105008498.1.2.3 bus2=97585555008498.1.2.3 r1=0.236 x1=0.27 length=0.034954 units=km normamps=456.0
new line.55632724 phases=3 bus1=97799785008498.1.2.3 bus2=80546535008498.1.2.3 r1=0.236 x1=0.27 length=0.021705 units=km normamps=456.0
new line.55797012 phases=3 bus1=99056675008498.1.2.3 bus2=80546675008498.1.2.3 r1=0.236 x1=0.27 length=0.006122 units=km normamps=456.0
new line.55797014 phases=3 bus1=80545285008498.1.2.3 bus2=80482485008498.1.2.3 r1=0.236 x1=0.27 length=0.033198 units=km normamps=456.0
new line.55895012 phases=3 bus1=99827065008498.1.2.3 bus2=80444115008498.1.2.3 r1=0.236 x1=0.27 length=0.018257 units=km normamps=456.0
new line.88888866538 phases=3 bus1=I888888499545008498.1.2.3 bus2=I888888499535008498.1.2.3 r1=1.551 x1=0.47 length=0.001 units=km normamps=125.0
new line.88888866547 phases=3 bus1=I888888499625008498B.1.2.3 bus2=I888888499635008498.1.2.3 r1=1.551 x1=0.47 length=0.001 units=km normamps=125.0
new line.88888866550 phases=3 bus1=I888888499545008498.1.2.3 bus2=I888888499645008498.1.2.3 r1=1.551 x1=0.47 length=0.001 units=km normamps=125.0
new line.88888866549 phases=3 bus1=I888888499615008498B.1.2.3 bus2=I888888499535008498.1.2.3 r1=1.551 x1=0.47 length=0.001 units=km normamps=125.0
new line.88888866566 phases=3 bus1=95463865008498.1.2.3 bus2=I888888499535008498.1.2.3 r1=1.551 x1=0.47 length=0.001 units=km normamps=125.0
new line.88888866548 phases=3 bus1=I888888499635008498B.1.2.3 bus2=INT153325008498.1.2.3 r1=1.551 x1=0.47 length=0.001 units=km normamps=125.0
new line.88888866546 phases=3 bus1=I888888499615008498.1.2.3 bus2=I888888499625008498.1.2.3 r1=1.551 x1=0.47 length=0.001 units=km normamps=125.0
new line.55848331 phases=3 bus1=99461035008498.1.2.3 bus2=80544105008498.1.2.3 r1=0.236 x1=0.27 length=0.015263 units=km normamps=456.0

! 3. Chaves Seccionadoras MT
new line.SC_5272159 phases=3 bus1=80543435008498.1.2.3 bus2=80543435008498B.1.2.3 switch=y r1=1e-4 x1=1e-4 length=0.001 units=km
new line.SC_5272162 phases=3 bus1=80543475008498.1.2.3 bus2=80543475008498B.1.2.3 switch=y r1=1e-4 x1=1e-4 length=0.001 units=km
new line.SC_5272163 phases=3 bus1=80543615008498.1.2.3 bus2=80543615008498B.1.2.3 switch=y r1=1e-4 x1=1e-4 length=0.001 units=km
new line.SC_5272164 phases=3 bus1=80541875008498.1.2.3 bus2=80541875008498B.1.2.3 switch=y r1=1e-4 x1=1e-4 length=0.001 units=km
new line.SC_5272167 phases=3 bus1=80542515008498.1.2.3 bus2=80542515008498B.1.2.3 switch=y r1=1e-4 x1=1e-4 length=0.001 units=km
new line.SC_5272182 phases=3 bus1=80541195008498.1.2.3 bus2=80541195008498B.1.2.3 switch=y r1=1e-4 x1=1e-4 length=0.001 units=km
new line.SC_5706702 phases=3 bus1=94665455008498.1.2.3 bus2=94665455008498B.1.2.3 switch=y r1=1e-4 x1=1e-4 length=0.001 units=km
open line.SC_5706702 1
new line.SC_5706704 phases=3 bus1=94665465008498.1.2.3 bus2=94665465008498B.1.2.3 switch=y r1=1e-4 x1=1e-4 length=0.001 units=km
new line.SC_5726570 phases=3 bus1=80541815008498.1.2.3 bus2=80541815008498B.1.2.3 switch=y r1=1e-4 x1=1e-4 length=0.001 units=km
new line.SC_5726653 phases=3 bus1=95463905008498.1.2.3 bus2=95463905008498B.1.2.3 switch=y r1=1e-4 x1=1e-4 length=0.001 units=km
new line.SC_5745679 phases=3 bus1=80541255008498.1.2.3 bus2=80541255008498B.1.2.3 switch=y r1=1e-4 x1=1e-4 length=0.001 units=km
new line.SC_5763563 phases=3 bus1=80481045008498.1.2.3 bus2=80481045008498B.1.2.3 switch=y r1=1e-4 x1=1e-4 length=0.001 units=km
open line.SC_5763563 1
new line.SC_5766106 phases=3 bus1=80540875008498.1.2.3 bus2=80540875008498B.1.2.3 switch=y r1=1e-4 x1=1e-4 length=0.001 units=km
new line.SC_5780389 phases=3 bus1=80544115008498.1.2.3 bus2=80544115008498B.1.2.3 switch=y r1=1e-4 x1=1e-4 length=0.001 units=km
open line.SC_5780389 1
new line.SC_5807176 phases=3 bus1=80542535008498.1.2.3 bus2=80542535008498B.1.2.3 switch=y r1=1e-4 x1=1e-4 length=0.001 units=km
new line.SC_DA0003798 phases=3 bus1=I888888499625008498.1.2.3 bus2=I888888499625008498B.1.2.3 switch=y r1=1e-4 x1=1e-4 length=0.001 units=km
new line.SC_SA0002857 phases=3 bus1=I888888499635008498.1.2.3 bus2=I888888499635008498B.1.2.3 switch=y r1=1e-4 x1=1e-4 length=0.001 units=km
new line.SC_SA0002858 phases=3 bus1=I888888499615008498.1.2.3 bus2=I888888499615008498B.1.2.3 switch=y r1=1e-4 x1=1e-4 length=0.001 units=km

! 5. Transformadores MT/BT de Distribuicao
new transformer.UNTRMT_5272091 phases=3 windings=2 %r=1.68 xhl=3.07 kva=112.0
~ wdg=1 bus=80543005008498.1.2.3 conn=delta kv=13.8
~ wdg=2 bus=80543005272091.1.2.3.0 conn=wye kv=0.38

new transformer.UNTRMT_5272099 phases=3 windings=2 %r=1.68 xhl=3.07 kva=45.0
~ wdg=1 bus=80547775008498.1.2.3 conn=delta kv=13.8
~ wdg=2 bus=80547775272099.1.2.3.0 conn=wye kv=0.38

new transformer.UNTRMT_5272123 phases=3 windings=2 %r=1.55 xhl=3.14 kva=75.0
~ wdg=1 bus=80541045008498.1.2.3 conn=delta kv=13.8
~ wdg=2 bus=80541045272123.1.2.3.0 conn=wye kv=0.38

new transformer.UNTRMT_5272202 phases=3 windings=2 %r=1.68 xhl=3.07 kva=45.0
~ wdg=1 bus=80543405008498.1.2.3 conn=delta kv=13.8
~ wdg=2 bus=80543405272202.1.2.3.0 conn=wye kv=0.38

new transformer.UNTRMT_5272203 phases=3 windings=2 %r=1.39 xhl=3.21 kva=45.0
~ wdg=1 bus=80543445008498.1.2.3 conn=delta kv=13.8
~ wdg=2 bus=80543445272203.1.2.3.0 conn=wye kv=0.38

new transformer.UNTRMT_5272204 phases=3 windings=2 %r=1.55 xhl=3.14 kva=75.0
~ wdg=1 bus=80543625008498.1.2.3 conn=delta kv=13.8
~ wdg=2 bus=80543625272204.1.2.3.0 conn=wye kv=0.38

new transformer.UNTRMT_5272205 phases=3 windings=2 %r=1.46 xhl=3.18 kva=112.0
~ wdg=1 bus=80541265008498.1.2.3 conn=delta kv=13.8
~ wdg=2 bus=80541265272205.1.2.3.0 conn=wye kv=0.38

new transformer.UNTRMT_5272207 phases=3 windings=2 %r=1.46 xhl=3.18 kva=112.0
~ wdg=1 bus=80543875008498.1.2.3 conn=delta kv=13.8
~ wdg=2 bus=80543875272207.1.2.3.0 conn=wye kv=0.38

new transformer.UNTRMT_5272208 phases=3 windings=2 %r=1.46 xhl=3.18 kva=112.0
~ wdg=1 bus=80543785008498.1.2.3 conn=delta kv=13.8
~ wdg=2 bus=80543785272208.1.2.3.0 conn=wye kv=0.38

new transformer.UNTRMT_5272209 phases=3 windings=2 %r=1.68 xhl=3.07 kva=45.0
~ wdg=1 bus=80543915008498.1.2.3 conn=delta kv=13.8
~ wdg=2 bus=80543915272209.1.2.3.0 conn=wye kv=0.38

new transformer.UNTRMT_5272210 phases=3 windings=2 %r=1.46 xhl=3.18 kva=112.0
~ wdg=1 bus=80541795008498.1.2.3 conn=delta kv=13.8
~ wdg=2 bus=80541795272210.1.2.3.0 conn=wye kv=0.38

new transformer.UNTRMT_5272211 phases=3 windings=2 %r=1.55 xhl=3.14 kva=75.0
~ wdg=1 bus=80541965008498.1.2.3 conn=delta kv=13.8
~ wdg=2 bus=80541965272211.1.2.3.0 conn=wye kv=0.38

new transformer.UNTRMT_5272221 phases=3 windings=2 %r=1.55 xhl=3.14 kva=75.0
~ wdg=1 bus=80542225008498.1.2.3 conn=delta kv=13.8
~ wdg=2 bus=80542225272221.1.2.3.0 conn=wye kv=0.38

new transformer.UNTRMT_5272222 phases=3 windings=2 %r=1.46 xhl=3.18 kva=112.0
~ wdg=1 bus=80542465008498.1.2.3 conn=delta kv=13.8
~ wdg=2 bus=80542465272222.1.2.3.0 conn=wye kv=0.38

new transformer.UNTRMT_5272223 phases=3 windings=2 %r=1.55 xhl=3.14 kva=75.0
~ wdg=1 bus=80542885008498.1.2.3 conn=delta kv=13.8
~ wdg=2 bus=80542885272223.1.2.3.0 conn=wye kv=0.38

new transformer.UNTRMT_5272224 phases=3 windings=2 %r=1.46 xhl=3.18 kva=112.0
~ wdg=1 bus=80542565008498.1.2.3 conn=delta kv=13.8
~ wdg=2 bus=80542565272224.1.2.3.0 conn=wye kv=0.38

new transformer.UNTRMT_5272225 phases=3 windings=2 %r=1.46 xhl=3.18 kva=112.0
~ wdg=1 bus=80543965008498.1.2.3 conn=delta kv=13.8
~ wdg=2 bus=80543965272225.1.2.3.0 conn=wye kv=0.38

new transformer.UNTRMT_5272226 phases=3 windings=2 %r=1.55 xhl=3.14 kva=75.0
~ wdg=1 bus=80544125008498.1.2.3 conn=delta kv=13.8
~ wdg=2 bus=80544125272226.1.2.3.0 conn=wye kv=0.38

new transformer.UNTRMT_5272235 phases=3 windings=2 %r=1.68 xhl=3.07 kva=45.0
~ wdg=1 bus=80546535008498.1.2.3 conn=delta kv=13.8
~ wdg=2 bus=80546535272235.1.2.3.0 conn=wye kv=0.38

new transformer.UNTRMT_5272237 phases=3 windings=2 %r=1.46 xhl=3.18 kva=112.0
~ wdg=1 bus=80546635008498.1.2.3 conn=delta kv=13.8
~ wdg=2 bus=80546635272237.1.2.3.0 conn=wye kv=0.38

new transformer.UNTRMT_5272240 phases=3 windings=2 %r=1.55 xhl=3.14 kva=75.0
~ wdg=1 bus=80540895008498.1.2.3 conn=delta kv=13.8
~ wdg=2 bus=80540895272240.1.2.3.0 conn=wye kv=0.38

new transformer.UNTRMT_5272250 phases=3 windings=2 %r=1.55 xhl=3.14 kva=75.0
~ wdg=1 bus=80545285008498.1.2.3 conn=delta kv=13.8
~ wdg=2 bus=80545285272250.1.2.3.0 conn=wye kv=0.38

new transformer.UNTRMT_5272251 phases=3 windings=2 %r=1.55 xhl=3.14 kva=75.0
~ wdg=1 bus=80540905008498.1.2.3 conn=delta kv=13.8
~ wdg=2 bus=80540905272251.1.2.3.0 conn=wye kv=0.38

new transformer.UNTRMT_5344231 phases=3 windings=2 %r=1.3 xhl=4.31 kva=225.0
~ wdg=1 bus=85969455008498.1.2.3 conn=delta kv=13.8
~ wdg=2 bus=85969455344231.1.2.3.0 conn=wye kv=0.38

new transformer.UNTRMT_5663740 phases=3 windings=2 %r=1.25 xhl=4.32 kva=112.0
~ wdg=1 bus=93594285008498.1.2.3 conn=delta kv=13.8
~ wdg=2 bus=93594285663740.1.2.3.0 conn=wye kv=0.38

! 6. Linhas de Baixa Tensao (BT)
new line.52889029 phases=3 bus1=80543415272202.1.2.3.0 bus2=80543405272202.1.2.3.0 r1=0.613 x1=0.45 length=0.039458 units=km normamps=203.0
new line.52889204 phases=3 bus1=80543445272203.1.2.3.0 bus2=80543435272203.1.2.3.0 r1=0.613 x1=0.45 length=0.035716 units=km normamps=203.0
new line.52889205 phases=3 bus1=80543455272203.1.2.3.0 bus2=80543445272203.1.2.3.0 r1=0.613 x1=0.45 length=0.041157 units=km normamps=203.0
new line.52889211 phases=3 bus1=80543495272204.1.2.3.0 bus2=80543485272204.1.2.3.0 r1=1.564 x1=0.51 length=0.032011 units=km normamps=120.0
new line.52889221 phases=3 bus1=80543665272204.1.2.3.0 bus2=80543625272204.1.2.3.0 r1=0.975 x1=0.47 length=0.056837 units=km normamps=152.0
new line.52889254 phases=3 bus1=80543855272207.1.2.3.0 bus2=80543845272207.1.2.3.0 r1=0.975 x1=0.47 length=0.012631 units=km normamps=152.0
new line.52889256 phases=3 bus1=80543865272207.1.2.3.0 bus2=80442705272207.1.2.3.0 r1=0.975 x1=0.47 length=0.037058 units=km normamps=152.0
new line.52889268 phases=3 bus1=80542985272207.1.2.3.0 bus2=80542975272207.1.2.3.0 r1=0.991 x1=0.1 length=0.033386 units=km normamps=100.0
new line.52889278 phases=3 bus1=80543795272208.1.2.3.0 bus2=80543785272208.1.2.3.0 r1=0.613 x1=0.45 length=0.037221 units=km normamps=203.0
new line.52889282 phases=3 bus1=80543835272208.1.2.3.0 bus2=80543825272208.1.2.3.0 r1=0.975 x1=0.47 length=0.025556 units=km normamps=152.0
new line.52889285 phases=3 bus1=80543795272208.1.2.3.0 bus2=80543825272208.1.2.3.0 r1=0.613 x1=0.45 length=0.034053 units=km normamps=203.0
new line.52889288 phases=3 bus1=80544085272208.1.2.3.0 bus2=80543815272208.1.2.3.0 r1=0.975 x1=0.47 length=0.013859 units=km normamps=152.0
new line.52889291 phases=3 bus1=80547765272210.1.2.3.0 bus2=80541855272210.1.2.3.0 r1=0.975 x1=0.47 length=0.024626 units=km normamps=152.0
new line.52889295 phases=3 bus1=80541735272210.1.2.3.0 bus2=80541705272210.1.2.3.0 r1=0.991 x1=0.1 length=0.009955 units=km normamps=100.0
new line.52889296 phases=3 bus1=80541755272210.1.2.3.0 bus2=80541745272210.1.2.3.0 r1=0.991 x1=0.1 length=0.028981 units=km normamps=100.0
new line.52889298 phases=3 bus1=80541775272210.1.2.3.0 bus2=80541785272210.1.2.3.0 r1=0.506 x1=0.1 length=0.034787 units=km normamps=157.0
new line.52889301 phases=3 bus1=80541795272210.1.2.3.0 bus2=80541805272210.1.2.3.0 r1=0.613 x1=0.45 length=0.011659 units=km normamps=203.0
new line.52889312 phases=3 bus1=80541945272210.1.2.3.0 bus2=80541815272210.1.2.3.0 r1=0.613 x1=0.45 length=0.015338 units=km normamps=203.0
new line.52889326 phases=3 bus1=80547845272210.1.2.3.0 bus2=80547855272210.1.2.3.0 r1=0.975 x1=0.47 length=0.025643 units=km normamps=152.0
new line.52889331 phases=3 bus1=80547875272210.1.2.3.0 bus2=80547895272210.1.2.3.0 r1=0.975 x1=0.47 length=0.021497 units=km normamps=152.0
new line.52889335 phases=3 bus1=80547915272210.1.2.3.0 bus2=80547925272210.1.2.3.0 r1=0.975 x1=0.47 length=0.014641 units=km normamps=152.0
new line.52889339 phases=3 bus1=80541965272211.1.2.3.0 bus2=80541875272211.1.2.3.0 r1=0.613 x1=0.45 length=0.032764 units=km normamps=203.0
new line.52889341 phases=3 bus1=80542015272211.1.2.3.0 bus2=80541975272211.1.2.3.0 r1=0.613 x1=0.45 length=0.00796 units=km normamps=203.0
new line.52889342 phases=3 bus1=80542005272211.1.2.3.0 bus2=80542015272211.1.2.3.0 r1=0.613 x1=0.45 length=0.021405 units=km normamps=203.0
new line.52889346 phases=3 bus1=80542025272211.1.2.3.0 bus2=80541995272211.1.2.3.0 r1=0.975 x1=0.47 length=0.026996 units=km normamps=152.0
new line.52889435 phases=3 bus1=80542145272221.1.2.3.0 bus2=80541895272221.1.2.3.0 r1=0.613 x1=0.45 length=0.026518 units=km normamps=203.0
new line.52889455 phases=3 bus1=80541895272221.1.2.3.0 bus2=80541885272221.1.2.3.0 r1=0.613 x1=0.45 length=0.023003 units=km normamps=203.0
new line.52889466 phases=3 bus1=80479835272222.1.2.3.0 bus2=80542515272222.1.2.3.0 r1=0.506 x1=0.1 length=0.03478 units=km normamps=157.0
new line.52889476 phases=3 bus1=80544055272222.1.2.3.0 bus2=80544045272222.1.2.3.0 r1=0.991 x1=0.1 length=0.039949 units=km normamps=100.0
new line.52889482 phases=3 bus1=80543015272222.1.2.3.0 bus2=80544155272222.1.2.3.0 r1=0.991 x1=0.1 length=0.039464 units=km normamps=100.0
new line.52889484 phases=3 bus1=80542335272223.1.2.3.0 bus2=80542325272223.1.2.3.0 r1=0.613 x1=0.45 length=0.008948 units=km normamps=203.0
new line.52889485 phases=3 bus1=80542315272223.1.2.3.0 bus2=80542335272223.1.2.3.0 r1=0.975 x1=0.47 length=0.010082 units=km normamps=152.0
new line.52889522 phases=3 bus1=80542885272223.1.2.3.0 bus2=80542865272223.1.2.3.0 r1=0.613 x1=0.45 length=0.027418 units=km normamps=203.0
new line.52889534 phases=3 bus1=80543975272225.1.2.3.0 bus2=80543985272225.1.2.3.0 r1=0.613 x1=0.45 length=0.035906 units=km normamps=203.0
new line.52889550 phases=3 bus1=80544095272226.1.2.3.0 bus2=80544145272226.1.2.3.0 r1=0.975 x1=0.47 length=0.037036 units=km normamps=152.0
new line.52889554 phases=3 bus1=80543555272226.1.2.3.0 bus2=80543935272226.1.2.3.0 r1=0.975 x1=0.47 length=0.036852 units=km normamps=152.0
new line.52889636 phases=3 bus1=80546435272235.1.2.3.0 bus2=80546425272235.1.2.3.0 r1=0.613 x1=0.45 length=0.022736 units=km normamps=203.0
new line.52889641 phases=3 bus1=80545055272235.1.2.3.0 bus2=80545045272235.1.2.3.0 r1=0.975 x1=0.47 length=0.022119 units=km normamps=152.0
new line.52889673 phases=3 bus1=80545195272237.1.2.3.0 bus2=80545205272237.1.2.3.0 r1=0.975 x1=0.47 length=0.023312 units=km normamps=152.0
new line.52889674 phases=3 bus1=80545205272237.1.2.3.0 bus2=80545215272237.1.2.3.0 r1=0.975 x1=0.47 length=0.023 units=km normamps=152.0
new line.52889725 phases=3 bus1=80546645272237.1.2.3.0 bus2=80546635272237.1.2.3.0 r1=0.506 x1=0.1 length=0.033493 units=km normamps=157.0
new line.52889729 phases=3 bus1=80546665272237.1.2.3.0 bus2=80546685272237.1.2.3.0 r1=0.975 x1=0.47 length=0.012407 units=km normamps=152.0
new line.52889827 phases=3 bus1=80546565272250.1.2.3.0 bus2=80545165272250.1.2.3.0 r1=1.551 x1=0.49 length=0.018841 units=km normamps=114.0
new line.52889830 phases=3 bus1=80545145272250.1.2.3.0 bus2=80545235272250.1.2.3.0 r1=0.975 x1=0.47 length=0.005507 units=km normamps=152.0
new line.52889835 phases=3 bus1=80545285272250.1.2.3.0 bus2=80545235272250.1.2.3.0 r1=0.613 x1=0.45 length=0.033292 units=km normamps=203.0
new line.52889838 phases=3 bus1=80540875272251.1.2.3.0 bus2=80540885272251.1.2.3.0 r1=0.613 x1=0.45 length=0.021054 units=km normamps=203.0
new line.52889842 phases=3 bus1=80540945272251.1.2.3.0 bus2=80540915272251.1.2.3.0 r1=1.551 x1=0.49 length=0.02068 units=km normamps=114.0
new line.52889845 phases=3 bus1=80540975272251.1.2.3.0 bus2=80540965272251.1.2.3.0 r1=0.975 x1=0.47 length=0.030642 units=km normamps=152.0
new line.52889846 phases=3 bus1=80540935272251.1.2.3.0 bus2=80541025272251.1.2.3.0 r1=0.613 x1=0.45 length=0.0166 units=km normamps=203.0
new line.52889028 phases=3 bus1=80543405272202.1.2.3.0 bus2=80543395272202.1.2.3.0 r1=0.613 x1=0.45 length=0.031208 units=km normamps=203.0
new line.52889210 phases=3 bus1=80543485272204.1.2.3.0 bus2=80543475272204.1.2.3.0 r1=1.564 x1=0.51 length=0.04071 units=km normamps=120.0
new line.52889213 phases=3 bus1=80543575272204.1.2.3.0 bus2=80543585272204.1.2.3.0 r1=2.389 x1=0.52 length=0.023928 units=km normamps=90.0
new line.52889215 phases=3 bus1=80543595272204.1.2.3.0 bus2=80543615272204.1.2.3.0 r1=2.389 x1=0.52 length=0.015864 units=km normamps=90.0
new line.52889218 phases=3 bus1=80543645272204.1.2.3.0 bus2=80543635272204.1.2.3.0 r1=0.62 x1=0.47 length=0.022696 units=km normamps=230.0
new line.52889220 phases=3 bus1=80543655272204.1.2.3.0 bus2=80543645272204.1.2.3.0 r1=0.62 x1=0.47 length=0.042161 units=km normamps=230.0
new line.52889224 phases=3 bus1=80541025272205.1.2.3.0 bus2=80541035272205.1.2.3.0 r1=0.613 x1=0.45 length=0.01751 units=km normamps=203.0
new line.52889226 phases=3 bus1=80541055272205.1.2.3.0 bus2=80541065272205.1.2.3.0 r1=0.613 x1=0.45 length=0.038055 units=km normamps=203.0
new line.52889227 phases=3 bus1=80541065272205.1.2.3.0 bus2=80541085272205.1.2.3.0 r1=0.613 x1=0.45 length=0.026125 units=km normamps=203.0
new line.52889228 phases=3 bus1=80541075272205.1.2.3.0 bus2=80541085272205.1.2.3.0 r1=0.975 x1=0.47 length=0.022325 units=km normamps=152.0
new line.52889229 phases=3 bus1=80541075272205.1.2.3.0 bus2=80541095272205.1.2.3.0 r1=0.975 x1=0.47 length=0.02613 units=km normamps=152.0
new line.52889231 phases=3 bus1=80541085272205.1.2.3.0 bus2=80541265272205.1.2.3.0 r1=0.613 x1=0.45 length=0.029285 units=km normamps=203.0
new line.52889232 phases=3 bus1=80541095272205.1.2.3.0 bus2=80541275272205.1.2.3.0 r1=0.975 x1=0.47 length=0.034368 units=km normamps=152.0
new line.52889233 phases=3 bus1=80541275272205.1.2.3.0 bus2=80541285272205.1.2.3.0 r1=0.975 x1=0.47 length=0.023003 units=km normamps=152.0
new line.52889255 phases=3 bus1=80543845272207.1.2.3.0 bus2=80543865272207.1.2.3.0 r1=0.975 x1=0.47 length=0.040247 units=km normamps=152.0
new line.52889259 phases=3 bus1=80543885272207.1.2.3.0 bus2=80543875272207.1.2.3.0 r1=0.613 x1=0.45 length=0.027628 units=km normamps=203.0
new line.52889261 phases=3 bus1=80543895272207.1.2.3.0 bus2=80543885272207.1.2.3.0 r1=0.613 x1=0.45 length=0.040594 units=km normamps=203.0
new line.52889265 phases=3 bus1=80543855272207.1.2.3.0 bus2=80542995272207.1.2.3.0 r1=0.613 x1=0.45 length=0.031843 units=km normamps=203.0
new line.52889266 phases=3 bus1=80542965272207.1.2.3.0 bus2=80441685272207.1.2.3.0 r1=0.975 x1=0.47 length=0.017637 units=km normamps=152.0
new line.52889267 phases=3 bus1=80542975272207.1.2.3.0 bus2=80542965272207.1.2.3.0 r1=0.975 x1=0.47 length=0.014889 units=km normamps=152.0
new line.52889273 phases=3 bus1=80543375272207.1.2.3.0 bus2=80543385272207.1.2.3.0 r1=0.975 x1=0.47 length=0.032545 units=km normamps=152.0
new line.52889280 phases=3 bus1=80543815272208.1.2.3.0 bus2=80543805272208.1.2.3.0 r1=0.975 x1=0.47 length=0.036153 units=km normamps=152.0
new line.52889284 phases=3 bus1=80543775272208.1.2.3.0 bus2=80543925272208.1.2.3.0 r1=0.975 x1=0.47 length=0.013078 units=km normamps=152.0
new line.52889289 phases=3 bus1=80544155272208.1.2.3.0 bus2=80544165272208.1.2.3.0 r1=0.975 x1=0.47 length=0.029857 units=km normamps=152.0
new line.52889290 phases=3 bus1=80541725272210.1.2.3.0 bus2=80547755272210.1.2.3.0 r1=0.991 x1=0.1 length=0.023959 units=km normamps=100.0
new line.52889293 phases=3 bus1=80541715272210.1.2.3.0 bus2=80541725272210.1.2.3.0 r1=0.991 x1=0.1 length=0.034053 units=km normamps=100.0
new line.52889297 phases=3 bus1=80541765272210.1.2.3.0 bus2=80541775272210.1.2.3.0 r1=0.506 x1=0.1 length=0.03461 units=km normamps=157.0
new line.52889300 phases=3 bus1=80541805272210.1.2.3.0 bus2=80541765272210.1.2.3.0 r1=0.975 x1=0.47 length=0.009329 units=km normamps=152.0
new line.52889304 phases=3 bus1=80541815272210.1.2.3.0 bus2=80541795272210.1.2.3.0 r1=0.613 x1=0.45 length=0.036022 units=km normamps=203.0
new line.52889305 phases=3 bus1=80541835272210.1.2.3.0 bus2=80541825272210.1.2.3.0 r1=0.975 x1=0.47 length=0.026841 units=km normamps=152.0
new line.52889306 phases=3 bus1=80541845272210.1.2.3.0 bus2=80541835272210.1.2.3.0 r1=0.975 x1=0.47 length=0.015592 units=km normamps=152.0
new line.52889308 phases=3 bus1=80484565272210.1.2.3.0 bus2=80541925272210.1.2.3.0 r1=0.975 x1=0.47 length=0.03376 units=km normamps=152.0
new line.52889311 phases=3 bus1=80541955272210.1.2.3.0 bus2=80541945272210.1.2.3.0 r1=1.551 x1=0.49 length=0.022979 units=km normamps=114.0
new line.52889313 phases=3 bus1=80541925272210.1.2.3.0 bus2=80541955272210.1.2.3.0 r1=0.975 x1=0.47 length=0.021278 units=km normamps=152.0
new line.52889321 phases=3 bus1=80542115272210.1.2.3.0 bus2=80541705272210.1.2.3.0 r1=0.991 x1=0.1 length=0.027047 units=km normamps=100.0
new line.52889324 phases=3 bus1=80547825272210.1.2.3.0 bus2=80443965272210.1.2.3.0 r1=0.991 x1=0.1 length=0.04407 units=km normamps=100.0
new line.52889325 phases=3 bus1=80547835272210.1.2.3.0 bus2=80547845272210.1.2.3.0 r1=0.975 x1=0.47 length=0.026794 units=km normamps=152.0
new line.52889333 phases=3 bus1=80547905272210.1.2.3.0 bus2=80444815272210.1.2.3.0 r1=0.975 x1=0.47 length=0.009146 units=km normamps=152.0
new line.52889337 phases=3 bus1=80443945272211.1.2.3.0 bus2=80542035272211.1.2.3.0 r1=0.975 x1=0.47 length=0.035581 units=km normamps=152.0
new line.52889338 phases=3 bus1=80541905272211.1.2.3.0 bus2=80541915272211.1.2.3.0 r1=0.975 x1=0.47 length=0.027609 units=km normamps=152.0
new line.52889343 phases=3 bus1=80541995272211.1.2.3.0 bus2=80542015272211.1.2.3.0 r1=0.975 x1=0.47 length=0.010035 units=km normamps=152.0
new line.52889348 phases=3 bus1=80542055272211.1.2.0 bus2=80542045272211.1.2.0 r1=0.975 x1=0.47 length=0.033264 units=km normamps=152.0
new line.52889350 phases=3 bus1=80472885272211.1.2.3.0 bus2=80542005272211.1.2.3.0 r1=0.613 x1=0.45 length=0.039186 units=km normamps=203.0
new line.52889351 phases=3 bus1=80541985272211.1.2.3.0 bus2=80542075272211.1.2.3.0 r1=0.975 x1=0.47 length=0.039471 units=km normamps=152.0
new line.52889353 phases=3 bus1=80542085272211.1.2.0 bus2=80542065272211.1.2.0 r1=0.975 x1=0.47 length=0.038862 units=km normamps=152.0
new line.52889433 phases=3 bus1=80479785272221.1.2.3.0 bus2=80542125272221.1.2.3.0 r1=0.613 x1=0.45 length=0.036401 units=km normamps=203.0
new line.52889437 phases=3 bus1=80542155272221.1.2.3.0 bus2=80542145272221.1.2.3.0 r1=0.613 x1=0.45 length=0.011432 units=km normamps=203.0
new line.52889439 phases=3 bus1=80542125272221.1.2.3.0 bus2=80542175272221.1.2.3.0 r1=0.613 x1=0.45 length=0.026883 units=km normamps=203.0
new line.52889444 phases=3 bus1=80542215272221.1.2.3.0 bus2=80542205272221.1.2.3.0 r1=0.975 x1=0.47 length=0.037672 units=km normamps=152.0
new line.52889445 phases=3 bus1=80542165272221.1.2.3.0 bus2=80542225272221.1.2.3.0 r1=0.613 x1=0.45 length=0.032497 units=km normamps=203.0
new line.52889447 phases=3 bus1=80542235272221.1.2.3.0 bus2=80542245272221.1.2.3.0 r1=0.975 x1=0.47 length=0.010567 units=km normamps=152.0
new line.52889448 phases=3 bus1=80542235272221.1.2.3.0 bus2=80542255272221.1.2.3.0 r1=0.613 x1=0.45 length=0.033008 units=km normamps=203.0
new line.52889449 phases=3 bus1=80542275272221.1.2.3.0 bus2=80542265272221.1.2.3.0 r1=0.975 x1=0.47 length=0.02994 units=km normamps=152.0
new line.52889450 phases=3 bus1=80542285272221.1.2.3.0 bus2=80542275272221.1.2.3.0 r1=0.975 x1=0.47 length=0.033981 units=km normamps=152.0
new line.52889451 phases=3 bus1=80542295272221.1.2.3.0 bus2=80542285272221.1.2.3.0 r1=0.975 x1=0.47 length=0.038492 units=km normamps=152.0
new line.52889459 phases=3 bus1=80542445272222.1.2.3.0 bus2=80542455272222.1.2.3.0 r1=0.991 x1=0.1 length=0.030402 units=km normamps=100.0
new line.52889460 phases=3 bus1=80542465272222.1.2.3.0 bus2=80542435272222.1.2.3.0 r1=0.506 x1=0.1 length=0.042986 units=km normamps=157.0
new line.52889462 phases=3 bus1=80542485272222.1.2.3.0 bus2=80542475272222.1.2.3.0 r1=0.991 x1=0.1 length=0.015338 units=km normamps=100.0
new line.52889471 phases=3 bus1=80542605272222.1.2.3.0 bus2=80542615272222.1.2.3.0 r1=0.991 x1=0.1 length=0.038911 units=km normamps=100.0
new line.52889472 phases=3 bus1=80542615272222.1.2.3.0 bus2=80542625272222.1.2.3.0 r1=0.991 x1=0.1 length=0.031716 units=km normamps=100.0
new line.52889478 phases=3 bus1=80542455272222.1.2.3.0 bus2=80544085272222.1.2.3.0 r1=0.991 x1=0.1 length=0.033464 units=km normamps=100.0
new line.52889479 phases=3 bus1=80542415272222.1.2.3.0 bus2=80543015272222.1.2.3.0 r1=0.991 x1=0.1 length=0.012813 units=km normamps=100.0
new line.52889483 phases=3 bus1=80542305272223.1.2.3.0 bus2=80542315272223.1.2.3.0 r1=0.975 x1=0.47 length=0.032658 units=km normamps=152.0
new line.52889486 phases=3 bus1=80542335272223.1.2.3.0 bus2=80542345272223.1.2.3.0 r1=0.975 x1=0.47 length=0.020473 units=km normamps=152.0
new line.52889488 phases=3 bus1=80542365272223.1.2.3.0 bus2=80542355272223.1.2.3.0 r1=0.613 x1=0.45 length=0.047169 units=km normamps=203.0
new line.52889489 phases=3 bus1=80542365272223.1.2.3.0 bus2=80542375272223.1.2.3.0 r1=0.975 x1=0.47 length=0.036276 units=km normamps=152.0
new line.52889492 phases=1 bus1=80542405272223.1.0 bus2=80542395272223.1.0 r1=0.975 x1=0.47 length=0.033921 units=km normamps=152.0
new line.52889509 phases=3 bus1=80542785272223.1.2.3.0 bus2=80542805272223.1.2.3.0 r1=0.975 x1=0.47 length=0.033008 units=km normamps=152.0
new line.52889514 phases=3 bus1=80542805272223.1.2.3.0 bus2=80542845272223.1.2.3.0 r1=0.613 x1=0.45 length=0.02186 units=km normamps=203.0
new line.52889519 phases=3 bus1=80542795272223.1.2.3.0 bus2=80542875272223.1.2.3.0 r1=0.975 x1=0.47 length=0.037515 units=km normamps=152.0
new line.52889520 phases=3 bus1=80542875272223.1.2.3.0 bus2=80542345272223.1.2.3.0 r1=0.975 x1=0.47 length=0.037506 units=km normamps=152.0
new line.52889528 phases=3 bus1=80543745272225.1.2.3.0 bus2=80543735272225.1.2.3.0 r1=0.975 x1=0.47 length=0.036759 units=km normamps=152.0
new line.52889529 phases=3 bus1=80543685272225.1.2.3.0 bus2=80543705272225.1.2.3.0 r1=0.975 x1=0.47 length=0.022253 units=km normamps=152.0
new line.52889531 phases=3 bus1=80543715272225.1.2.3.0 bus2=80543955272225.1.2.3.0 r1=0.613 x1=0.45 length=0.026841 units=km normamps=203.0
new line.52889536 phases=3 bus1=80544005272225.1.2.3.0 bus2=80543995272225.1.2.3.0 r1=0.975 x1=0.47 length=0.023469 units=km normamps=152.0
new line.52889539 phases=3 bus1=80544025272225.1.2.3.0 bus2=80544035272225.1.2.3.0 r1=0.975 x1=0.47 length=0.018793 units=km normamps=152.0
new line.52889544 phases=3 bus1=80543685272226.1.2.3.0 bus2=80543675272226.1.2.3.0 r1=0.975 x1=0.47 length=0.043155 units=km normamps=152.0
new line.52889546 phases=3 bus1=80544105272226.1.2.3.0 bus2=80544115272226.1.2.3.0 r1=0.613 x1=0.45 length=0.030329 units=km normamps=203.0
new line.52889548 phases=3 bus1=80544135272226.1.2.3.0 bus2=80544125272226.1.2.3.0 r1=0.613 x1=0.45 length=0.030281 units=km normamps=203.0
new line.52889549 phases=3 bus1=80543515272226.1.2.3.0 bus2=94665475272226.1.2.3.0 r1=0.506 x1=0.1 length=0.011209 units=km normamps=157.0
new line.52889553 phases=3 bus1=80543945272226.1.2.3.0 bus2=80543935272226.1.2.3.0 r1=0.975 x1=0.47 length=0.022003 units=km normamps=152.0
new line.52889637 phases=3 bus1=80541235272235.1.2.3.0 bus2=80546535272235.1.2.3.0 r1=0.613 x1=0.45 length=0.021398 units=km normamps=203.0
new line.52889676 phases=3 bus1=80541205272237.1.2.3.0 bus2=80541195272237.1.2.3.0 r1=0.506 x1=0.1 length=0.031601 units=km normamps=157.0
new line.52889726 phases=3 bus1=80546655272237.1.2.3.0 bus2=80546645272237.1.2.3.0 r1=0.613 x1=0.45 length=0.04774 units=km normamps=203.0
new line.52889727 phases=3 bus1=80546685272237.1.2.3.0 bus2=80546655272237.1.2.3.0 r1=0.613 x1=0.45 length=0.009551 units=km normamps=203.0
new line.52889728 phases=3 bus1=80546675272237.1.2.3.0 bus2=80546685272237.1.2.3.0 r1=0.613 x1=0.45 length=0.009245 units=km normamps=203.0
new line.52889730 phases=3 bus1=80546685272237.1.2.3.0 bus2=80545175272237.1.2.3.0 r1=0.975 x1=0.47 length=0.039471 units=km normamps=152.0
new line.52889826 phases=3 bus1=80545165272250.1.2.3.0 bus2=80545155272250.1.2.3.0 r1=1.551 x1=0.49 length=0.0311 units=km normamps=114.0
new line.52889831 phases=3 bus1=80545245272250.1.2.3.0 bus2=80545235272250.1.2.3.0 r1=1.551 x1=0.49 length=0.026841 units=km normamps=114.0
new line.52889833 phases=3 bus1=80545265272250.1.2.3.0 bus2=80545255272250.1.2.3.0 r1=1.551 x1=0.49 length=0.030499 units=km normamps=114.0
new line.52889844 phases=3 bus1=80540935272251.1.2.3.0 bus2=80540965272251.1.2.3.0 r1=0.975 x1=0.47 length=0.015775 units=km normamps=152.0
new line.52889850 phases=3 bus1=80540955272251.1.2.3.0 bus2=80541325272251.1.2.3.0 r1=1.551 x1=0.49 length=0.031501 units=km normamps=114.0
new line.52889852 phases=3 bus1=80541335272251.1.2.3.0 bus2=80541345272251.1.2.3.0 r1=1.551 x1=0.49 length=0.024446 units=km normamps=114.0
new line.53180723 phases=3 bus1=80542505272222.1.2.3.0 bus2=80542635272222.1.2.3.0 r1=0.991 x1=0.1 length=0.015905 units=km normamps=100.0
new line.54359456 phases=3 bus1=80543675272226.1.2.3.0 bus2=80543515272226.1.2.3.0 r1=0.975 x1=0.47 length=0.041275 units=km normamps=152.0
new line.55217057 phases=3 bus1=94665485272226.1.2.3.0 bus2=80544135272226.1.2.3.0 r1=0.506 x1=0.1 length=0.012424 units=km normamps=157.0
new line.55303198 phases=3 bus1=80545065272235.1.2.3.0 bus2=80545075272235.1.2.3.0 r1=0.991 x1=0.1 length=0.023181 units=km normamps=100.0
new line.55347127 phases=3 bus1=95745125272210.1.2.3.0 bus2=95745155272210.1.2.3.0 r1=0.991 x1=0.1 length=0.011209 units=km normamps=100.0
new line.55553437 phases=3 bus1=80540875272251.1.2.3.0 bus2=80540865272251.1.2.3.0 r1=0.613 x1=0.45 length=0.027908 units=km normamps=203.0
new line.52889027 phases=3 bus1=80543395272202.1.2.3.0 bus2=80543355272202.1.2.3.0 r1=0.613 x1=0.45 length=0.029299 units=km normamps=203.0
new line.52889033 phases=3 bus1=80442655272202.1.2.3.0 bus2=80543355272202.1.2.3.0 r1=0.975 x1=0.47 length=0.032604 units=km normamps=152.0
new line.52889034 phases=3 bus1=80543355272202.1.2.3.0 bus2=80543365272202.1.2.3.0 r1=0.975 x1=0.47 length=0.026428 units=km normamps=152.0
new line.52889203 phases=3 bus1=80543435272203.1.2.3.0 bus2=80543425272203.1.2.3.0 r1=0.975 x1=0.47 length=0.012407 units=km normamps=152.0
new line.52889208 phases=3 bus1=80442675272203.1.2.3.0 bus2=80442665272203.1.2.3.0 r1=0.975 x1=0.47 length=0.014781 units=km normamps=152.0
new line.52889212 phases=3 bus1=80543505272204.1.2.3.0 bus2=80543495272204.1.2.3.0 r1=1.564 x1=0.51 length=0.030365 units=km normamps=120.0
new line.52889216 phases=3 bus1=80543625272204.1.2.3.0 bus2=80543615272204.1.2.3.0 r1=0.62 x1=0.47 length=0.034169 units=km normamps=230.0
new line.52889217 phases=3 bus1=80543635272204.1.2.3.0 bus2=80543625272204.1.2.3.0 r1=0.62 x1=0.47 length=0.024626 units=km normamps=230.0
new line.52889219 phases=3 bus1=80543475272204.1.2.3.0 bus2=80543655272204.1.2.3.0 r1=1.564 x1=0.51 length=0.036531 units=km normamps=120.0
new line.52889225 phases=3 bus1=80541035272205.1.2.3.0 bus2=80541055272205.1.2.3.0 r1=0.613 x1=0.45 length=0.010528 units=km normamps=203.0
new line.52889257 phases=3 bus1=80543875272207.1.2.3.0 bus2=80543855272207.1.2.3.0 r1=0.613 x1=0.45 length=0.039254 units=km normamps=203.0
new line.52889274 phases=3 bus1=80543755272208.1.2.3.0 bus2=80543745272208.1.2.3.0 r1=0.613 x1=0.45 length=0.032428 units=km normamps=203.0
new line.52889279 phases=3 bus1=80543805272208.1.2.3.0 bus2=80543795272208.1.2.3.0 r1=0.975 x1=0.47 length=0.02307 units=km normamps=152.0
new line.52889281 phases=3 bus1=80544165272208.1.2.3.0 bus2=80544175272208.1.2.3.0 r1=0.975 x1=0.47 length=0.014342 units=km normamps=152.0
new line.52889309 phases=3 bus1=80541825272210.1.2.3.0 bus2=80541945272210.1.2.3.0 r1=0.975 x1=0.47 length=0.010173 units=km normamps=152.0
new line.52889315 phases=3 bus1=80541875272210.1.2.3.0 bus2=80541945272210.1.2.3.0 r1=0.613 x1=0.45 length=0.019051 units=km normamps=203.0
new line.52889323 phases=3 bus1=80547755272210.1.2.3.0 bus2=80547825272210.1.2.3.0 r1=0.991 x1=0.1 length=0.037703 units=km normamps=100.0
new line.52889327 phases=3 bus1=80547855272210.1.2.3.0 bus2=80547865272210.1.2.3.0 r1=0.991 x1=0.1 length=0.02434 units=km normamps=100.0
new line.52889330 phases=3 bus1=80541785272210.1.2.3.0 bus2=80547865272210.1.2.3.0 r1=0.506 x1=0.1 length=0.034091 units=km normamps=157.0
new line.52889332 phases=3 bus1=80547895272210.1.2.3.0 bus2=80547905272210.1.2.3.0 r1=0.975 x1=0.47 length=0.021351 units=km normamps=152.0
new line.52889334 phases=3 bus1=80444815272210.1.2.3.0 bus2=80547915272210.1.2.3.0 r1=0.975 x1=0.47 length=0.010523 units=km normamps=152.0
new line.52889340 phases=3 bus1=80541975272211.1.2.3.0 bus2=80541965272211.1.2.3.0 r1=0.613 x1=0.45 length=0.036051 units=km normamps=203.0
new line.52889345 phases=3 bus1=80541915272211.1.2.3.0 bus2=80541985272211.1.2.3.0 r1=0.975 x1=0.47 length=0.035177 units=km normamps=152.0
new line.52889347 phases=3 bus1=80542035272211.1.2.3.0 bus2=80542025272211.1.2.3.0 r1=0.975 x1=0.47 length=0.030403 units=km normamps=152.0
new line.52889349 phases=3 bus1=80542065272211.1.2.0 bus2=80542055272211.1.2.0 r1=0.975 x1=0.47 length=0.041939 units=km normamps=152.0
new line.52889352 phases=3 bus1=80542075272211.1.2.3.0 bus2=80542085272211.1.2.3.0 r1=0.975 x1=0.47 length=0.02781 units=km normamps=152.0
new line.52889434 phases=3 bus1=80542135272221.1.2.3.0 bus2=80479825272221.1.2.3.0 r1=0.975 x1=0.47 length=0.033464 units=km normamps=152.0
new line.52889436 phases=3 bus1=80542155272221.1.2.3.0 bus2=80542135272221.1.2.3.0 r1=0.975 x1=0.47 length=0.031501 units=km normamps=152.0
new line.52889438 phases=3 bus1=80542175272221.1.2.3.0 bus2=80542155272221.1.2.3.0 r1=0.613 x1=0.45 length=0.021498 units=km normamps=203.0
new line.52889443 phases=3 bus1=80542205272221.1.2.3.0 bus2=80542195272221.1.2.3.0 r1=0.975 x1=0.47 length=0.031049 units=km normamps=152.0
new line.52889446 phases=3 bus1=80542225272221.1.2.3.0 bus2=80542235272221.1.2.3.0 r1=0.613 x1=0.45 length=0.038793 units=km normamps=203.0
new line.52889452 phases=3 bus1=80542255272221.1.2.3.0 bus2=80542295272221.1.2.3.0 r1=0.975 x1=0.47 length=0.024584 units=km normamps=152.0
new line.52889453 phases=3 bus1=80542245272221.1.2.3.0 bus2=80542305272221.1.2.3.0 r1=0.975 x1=0.47 length=0.029664 units=km normamps=152.0
new line.52889457 phases=3 bus1=80542435272222.1.2.3.0 bus2=80542425272222.1.2.3.0 r1=0.506 x1=0.1 length=0.032088 units=km normamps=157.0
new line.52889458 phases=3 bus1=80542435272222.1.2.3.0 bus2=80542445272222.1.2.3.0 r1=0.991 x1=0.1 length=0.010927 units=km normamps=100.0
new line.52889461 phases=3 bus1=80542475272222.1.2.3.0 bus2=80542465272222.1.2.3.0 r1=0.506 x1=0.1 length=0.030694 units=km normamps=157.0
new line.52889464 phases=3 bus1=80542505272222.1.2.3.0 bus2=80542495272222.1.2.3.0 r1=0.991 x1=0.1 length=0.042995 units=km normamps=100.0
new line.52889465 phases=3 bus1=80542515272222.1.2.3.0 bus2=80542505272222.1.2.3.0 r1=0.991 x1=0.1 length=0.033749 units=km normamps=100.0
new line.52889468 phases=3 bus1=80542585272222.1.2.3.0 bus2=80542595272222.1.2.3.0 r1=0.991 x1=0.1 length=0.03591 units=km normamps=100.0
new line.52889469 phases=3 bus1=80542595272222.1.2.3.0 bus2=80542605272222.1.2.3.0 r1=0.991 x1=0.1 length=0.035794 units=km normamps=100.0
new line.52889473 phases=3 bus1=80542625272222.1.2.3.0 bus2=80542635272222.1.2.3.0 r1=0.991 x1=0.1 length=0.034827 units=km normamps=100.0
new line.52889474 phases=3 bus1=80542635272222.1.2.3.0 bus2=80542645272222.1.2.3.0 r1=0.991 x1=0.1 length=0.032769 units=km normamps=100.0
new line.52889475 phases=3 bus1=80544045272222.1.2.3.0 bus2=80542485272222.1.2.3.0 r1=0.991 x1=0.1 length=0.02988 units=km normamps=100.0
new line.52889477 phases=3 bus1=80544065272222.1.2.3.0 bus2=80544055272222.1.2.3.0 r1=0.991 x1=0.1 length=0.034506 units=km normamps=100.0
new line.52889487 phases=3 bus1=80542355272223.1.2.3.0 bus2=80542335272223.1.2.3.0 r1=0.613 x1=0.45 length=0.022591 units=km normamps=203.0
new line.52889490 phases=3 bus1=80542385272223.1.2.3.0 bus2=80542365272223.1.2.3.0 r1=0.613 x1=0.45 length=0.037084 units=km normamps=203.0
new line.52889491 phases=1 bus1=80542395272223.1.0 bus2=80542385272223.1.0 r1=0.975 x1=0.47 length=0.030732 units=km normamps=152.0
new line.52889510 phases=3 bus1=80542805272223.1.2.3.0 bus2=80542795272223.1.2.3.0 r1=0.975 x1=0.47 length=0.011464 units=km normamps=152.0
new line.52889515 phases=3 bus1=80542845272223.1.2.3.0 bus2=80542825272223.1.2.3.0 r1=0.613 x1=0.45 length=0.010452 units=km normamps=203.0
new line.52889517 phases=3 bus1=80542845272223.1.2.3.0 bus2=80542855272223.1.2.3.0 r1=0.613 x1=0.45 length=0.025999 units=km normamps=203.0
new line.52889518 phases=3 bus1=80542865272223.1.2.3.0 bus2=80542845272223.1.2.3.0 r1=0.613 x1=0.45 length=0.012503 units=km normamps=203.0
new line.52889525 phases=3 bus1=80543695272225.1.2.3.0 bus2=80543715272225.1.2.3.0 r1=0.613 x1=0.45 length=0.019021 units=km normamps=203.0
...

! 7. Cargas Consumidoras de Baixa Tensao (BT)
new load.UCBT_bbb27fda46bcbdf6567923e376081ed0bd942d332bebee59be22a726ee672981 phases=3 model=1 bus=80544005272225.1.2.3.0 kv=0.38 conn=wye kw=37.0 daily=COM-Tipo3 vminpu=0.85
new load.UCBT_4cac7500c33ac4ea4af3265e28eebc87877223c4b4d5f36d72f42af37f77eb4c phases=3 model=1 bus=80542425272222.1.2.3.0 kv=0.38 conn=wye kw=37.0 daily=RES-Tipo2 vminpu=0.85
new load.UCBT_092e4afb5d03365c1888d5e63c9e0f11c09a9a9a4b673679e08767247e209562 phases=1 model=1 bus=80442655272202.1.0 kv=0.22 conn=wye kw=8.0 daily=RES-Tipo9 vminpu=0.85
new load.UCBT_d50b7902b5586b0180dc07440e11d6718cb18797b071e8cb4f8c1b2487c4be95 phases=1 model=1 bus=80479835272222.1.0 kv=0.22 conn=wye kw=8.0 daily=RES-Tipo1 vminpu=0.85
new load.UCBT_412cda514ec75e0e5203d79677517763a8ed5b8d95c90205004cf5e3479d88c3 phases=1 model=1 bus=80541775272210.1.0 kv=0.22 conn=wye kw=4.0 daily=RES-Tipo4 vminpu=0.85
new load.UCBT_afb766de5d5ee38cac73261574a2c1740c98a68698102453b8e9644acd4c0033 phases=1 model=1 bus=80542565272224.1.0 kv=0.22 conn=wye kw=8.0 daily=RES-Tipo2 vminpu=0.85
new load.UCBT_75d02c58e5717736ddf95a9585f0d210973c567bc93703039b6a51e012028ab8 phases=1 model=1 bus=80542255272221.3.0 kv=0.22 conn=wye kw=8.0 daily=RES-Tipo4 vminpu=0.85
...